OPT_V9/8ts_w_storgae_myc_NEW_PARAM/powerflow_results_t5.txt
Pandapower Network Debug Info
==================================================

BUS:
       vm_pu  va_degree      p_mw    q_mvar
0   1.006207   0.276669 -0.003557 -0.000730
1   1.009709   0.432316 -0.003536  0.000090
2   1.011966   0.524534 -0.002453 -0.000094
3   1.008425   0.413971 -0.003852  0.000638
4   1.002471   0.286366 -0.002344  0.001387
5   1.005882   0.334060 -0.003688  0.000925
6   1.009967   0.515745 -0.004746  0.000000
7   1.003329   0.131191 -0.004717 -0.000345
8   1.000946   0.062989 -0.004161 -0.000324
9   0.999959   0.001308  0.003574  0.008054
10  0.999952   0.001336  0.003763  0.007295
11  0.999947   0.001253  0.008316  0.003522
12  0.999971   0.002664  0.003176  0.005808
13  0.999963   0.002458  0.007262  0.007473
14  0.999960   0.002283  0.006964 -0.000835
15  0.999983   0.001012  0.000000  0.000000
16  0.999983   0.001013  0.000000  0.000000
17  0.999974   0.002598  0.000000  0.000000
18  0.999974   0.002599  0.000000  0.000000
19  1.000000   0.000000 -0.002394 -0.023868
20  1.000000   0.000003  0.000000  0.000000
21  1.000000   0.000000  0.002128 -0.019172
22  1.000000   0.000002  0.000000  0.000000
--------------------------------------------------

LINE:
    p_from_mw   q_from_mvar   p_to_mw  q_to_mvar         pl_mw       ql_mvar  i_from_ka   i_to_ka      i_ka  vm_from_pu  va_from_degree  vm_to_pu  va_to_degree  loading_percent
0    0.002384  1.986837e-02 -0.002384  -0.019868  3.916798e-07  3.053992e-07   0.000770  0.000770  0.000770    1.000000        0.000003  0.999983      0.001012         0.334878
1   -0.002138  1.517243e-02  0.002139  -0.015172  6.315106e-07  4.923992e-07   0.000590  0.000590  0.000590    1.000000        0.000002  0.999974      0.002598         0.256416
2    0.015653  1.887220e-02 -0.015652  -0.018872  4.648897e-07  3.624822e-07   0.000944  0.000944  0.000944    0.999983        0.001012  0.999959      0.001308         0.410323
3    0.003176  5.808356e-03 -0.003176  -0.005808  1.515523e-08  1.181678e-08   0.000255  0.000255  0.000255    0.999974        0.002598  0.999971      0.002664         0.110783
4    0.014226  6.638027e-03 -0.014226  -0.006638  1.347556e-07  1.050712e-07   0.000604  0.000604  0.000604    0.999974        0.002598  0.999963      0.002458         0.262713
5   -0.013279 -4.044263e-06  0.013362   0.000068  8.247836e-05  6.430973e-05   0.019167  0.019167  0.019167    0.999983        0.001013  1.006207      0.276669         8.333517
6   -0.008359  9.827029e-04  0.008414  -0.000940  5.496116e-05  4.285412e-05   0.012149  0.012149  0.012149    0.999974        0.002599  1.005882      0.334060         5.282017
7   -0.004702 -3.334587e-04  0.004717   0.000345  1.501418e-05  1.170680e-05   0.006804  0.006804  0.006804    0.999974        0.002599  1.003329      0.131191         2.958388
8   -0.006489  1.076413e-03  0.006496  -0.001071  7.438825e-06  5.800174e-06   0.009494  0.009494  0.009494    0.999974        0.002599  1.000946      0.062989         4.127798
9   -0.012079 -1.081783e-02  0.012079   0.010818  9.093169e-08  7.090094e-08   0.000624  0.000624  0.000624    0.999952        0.001336  0.999959      0.001308         0.271363
10  -0.008316 -3.522382e-03  0.008316   0.003522  3.989434e-08  3.110627e-08   0.000348  0.000348  0.000348    0.999947        0.001253  0.999952      0.001336         0.151144
11  -0.006964  8.348517e-04  0.006964  -0.000835  2.405855e-08  1.875885e-08   0.000270  0.000270  0.000270    0.999960        0.002283  0.999963      0.002458         0.117374
12   0.005983  3.729243e-07 -0.005963   0.000016  2.077591e-05  1.619932e-05   0.008553  0.008553  0.008553    1.009709        0.432316  1.006207      0.276669         3.718847
13   0.003852 -6.382085e-04 -0.003842   0.000646  1.001027e-05  7.805170e-06   0.005589  0.005589  0.005589    1.008425        0.413971  1.006207      0.276669         2.429902
14   0.002453  9.435025e-05 -0.002447  -0.000090  5.321543e-06  4.149295e-06   0.003501  0.003501  0.003501    1.011966        0.524534  1.009709      0.432316         1.522101
15  -0.002335  1.394231e-03  0.002344  -0.001387  8.983934e-06  7.004921e-06   0.003922  0.003922  0.003922    1.000946        0.062989  1.002471      0.286366         1.705232
16   0.004746  2.158124e-09 -0.004726   0.000015  1.922139e-05  1.498724e-05   0.006782  0.006782  0.006782    1.009967        0.515745  1.005882      0.334060         2.948690
--------------------------------------------------

TRAFO:
    p_hv_mw  q_hv_mvar   p_lv_mw  q_lv_mvar    pl_mw  ql_mvar   i_hv_ka   i_lv_ka  vm_hv_pu  va_hv_degree  vm_lv_pu  va_lv_degree  loading_percent
0 -0.013269   0.000996  0.013279   0.000004  0.00001    0.001  0.000512  0.019167  0.999983      0.001012  0.999983      0.001013         0.133067
1 -0.019540   0.002726  0.019550  -0.001726  0.00001    0.001  0.000759  0.028328  0.999974      0.002598  0.999974      0.002599         0.197297
2  0.002394   0.023868 -0.002384  -0.019868  0.00001    0.004  0.000198  0.000770  1.000000      0.000000  1.000000      0.000003         0.059970
3 -0.002128   0.019172  0.002138  -0.015172  0.00001    0.004  0.000159  0.000590  1.000000      0.000000  1.000000      0.000002         0.048225
--------------------------------------------------
